Circuit: * C:\Users\Mohit\Documents\GitHub\pdsupply-duo\hardware\LTM8026_DC1696A.asc

Direct Newton iteration for .op point succeeded.
Ignoring empty pin current: Ix(u1:7)
Ignoring empty pin current: Ix(u1:9)
Ignoring empty pin current: Ix(u1:11)
Ignoring empty pin current: Ix(u1:12)
Ignoring empty pin current: Ix(u1:13)
Ignoring empty pin current: Ix(u1:16)
Ignoring empty pin current: Ix(u1:17)
Ignoring empty pin current: Ix(u1:18)
Ignoring empty pin current: Ix(u1:19)
Ignoring empty pin current: Ix(u1:20)
Ignoring empty pin current: Ix(u1:21)
Ignoring empty pin current: Ix(u1:22)
Ignoring empty pin current: Ix(u1:23)
Ignoring empty pin current: Ix(u1:24)
Ignoring empty pin current: Ix(u1:25)
Ignoring empty pin current: Ix(u1:26)
Ignoring empty pin current: Ix(u1:27)
Ignoring empty pin current: Ix(u1:7)
Ignoring empty pin current: Ix(u1:9)
Ignoring empty pin current: Ix(u1:11)
Ignoring empty pin current: Ix(u1:12)
Ignoring empty pin current: Ix(u1:13)
Ignoring empty pin current: Ix(u1:16)
Ignoring empty pin current: Ix(u1:17)
Ignoring empty pin current: Ix(u1:18)
Ignoring empty pin current: Ix(u1:19)
Ignoring empty pin current: Ix(u1:20)
Ignoring empty pin current: Ix(u1:21)
Ignoring empty pin current: Ix(u1:22)
Ignoring empty pin current: Ix(u1:23)
Ignoring empty pin current: Ix(u1:24)
Ignoring empty pin current: Ix(u1:25)
Ignoring empty pin current: Ix(u1:26)
Ignoring empty pin current: Ix(u1:27)

Date: Wed Mar 16 17:33:47 2022
Total elapsed time: 6.616 seconds.

tnom = 27
temp = 27
method = modified trap
totiter = 815955
traniter = 815918
tranpoints = 297805
accept = 216151
rejected = 81654
matrix size = 59
fillins = 5
solver = Normal
Thread vector: 3.0/2.9[1] 1.9/1.6[3] 0.4/0.9[1] 0.1/0.8[1]  2592/500
Matrix Compiler1:     124 opcodes  0.4/[0.2]/0.2
Matrix Compiler2: 3.52 KB object code size  0.2/0.5/[0.2]

